LTspice 24.0.12 for Windows
Circuit: * E:\Selvaganesh\Education\IIT Madras\analog lab\all diagrams.asc
Start Time: Sun Apr 20 12:36:57 2025
solver = Normal
Maximum thread count: 4
tnom = 27
temp = 27
method = modified trap
WARNING: Node NC_02 is floating.
WARNING: Node N010 is floating.

WARNING: Less than two connections to node nc_01.  This node is used by v1.
WARNING: Less than two connections to node nc_02.  This node is used by c2.
WARNING: Less than two connections to node n010.  This node is used by g:u3:1.
WARNING: Less than two connections to node nc_03.  This node is used by v2.
WARNING: Less than two connections to node nc_04.  This node is used by v3.
Instance "m:u1:5": Length shorter than recommended for a level 2 MOSFET.
Instance "m:u1:6": Length shorter than recommended for a level 2 MOSFET.
Direct Newton iteration for .op point succeeded.
Ignoring empty pin current: Ix(u3:1)
Ignoring empty pin current: Ix(u3:2)
Ignoring empty pin current: Ix(u4:1)
Ignoring empty pin current: Ix(u4:2)
Ignoring empty pin current: Ix(u5:1)
Ignoring empty pin current: Ix(u5:2)
Ignoring empty pin current: Ix(u6:1)
Ignoring empty pin current: Ix(u6:2)
Ignoring empty pin current: Ix(u3:1)
Ignoring empty pin current: Ix(u3:2)
Ignoring empty pin current: Ix(u4:1)
Ignoring empty pin current: Ix(u4:2)
Ignoring empty pin current: Ix(u5:1)
Ignoring empty pin current: Ix(u5:2)
Ignoring empty pin current: Ix(u6:1)
Ignoring empty pin current: Ix(u6:2)
Total elapsed time: 0.307 seconds.

